ytopt-libe/uqgrid/data/ACTIVSG/ACTIVSg200.raw
 0,    100.00, 33, 0, 0, 60.00       / May 16, 2017 17:14:36; Simulator Version 20 Beta; BuildDate 2017_5_15
This is a synthetic power system model that does not represent the actual grid. It was developed as part of the US ARPA-E Grid Data research project and contains no CEII.
Reference: A.B. Birchfield, T. Xu, K.M. Gegner, K.S. Shetye, and T.J. Overbye, "Grid Structural Characteristics as Validation Criteria for Synthetic Networks," to appear, IEEE Transactions on Power Systems, 2017.
    1,'CREVE COEU~1', 115.0000,1,   1,   2,   1,1.01915240,  -7.085196, 1.10000, 0.90000, 1.10000, 0.90000
    2,'CREVE COEU~2', 115.0000,1,   1,   2,   1,1.01903462,  -7.098018, 1.10000, 0.90000, 1.10000, 0.90000
    3,'ILLIOPOLIS 0', 115.0000,1,   1,   4,   1,1.03005362, -10.029102, 1.10000, 0.90000, 1.10000, 0.90000
    4,'ILLIOPOLIS 1', 115.0000,1,   1,   4,   1,1.03002870, -10.031977, 1.10000, 0.90000, 1.10000, 0.90000
    5,'PAXTON 2 0  ', 115.0000,1,   1,   6,   1,1.03727329,  -3.546274, 1.10000, 0.90000, 1.10000, 0.90000
    6,'PAXTON 2 1  ', 115.0000,1,   1,   6,   1,1.03714728,  -3.559563, 1.10000, 0.90000, 1.10000, 0.90000
    7,'PEORIA 9 0  ', 115.0000,1,   1,   2,   1,1.01309812,  -7.793195, 1.10000, 0.90000, 1.10000, 0.90000
    8,'PEORIA 9 1  ', 115.0000,1,   1,   2,   1,1.01273620,  -7.833073, 1.10000, 0.90000, 1.10000, 0.90000
    9,'PEORIA 8 0  ', 115.0000,1,   1,   2,   1,1.01577413,  -7.471766, 1.10000, 0.90000, 1.10000, 0.90000
   10,'PEORIA 8 1  ', 115.0000,1,   1,   2,   1,1.01505148,  -7.561889, 1.10000, 0.90000, 1.10000, 0.90000
   11,'LOVINGTON 0 ', 115.0000,1,   1,   4,   1,1.04644239,  -7.604683, 1.10000, 0.90000, 1.10000, 0.90000
   12,'LOVINGTON 1 ', 115.0000,1,   1,   4,   1,1.04643798,  -7.605220, 1.10000, 0.90000, 1.10000, 0.90000
   13,'LOVINGTON 2 ', 115.0000,1,   1,   4,   1,1.04640269,  -7.609214, 1.10000, 0.90000, 1.10000, 0.90000
   14,'DECATUR 3 0 ', 230.0000,1,   1,   4,   1,1.04461694,  -6.245575, 1.10000, 0.90000, 1.10000, 0.90000
   15,'DECATUR 3 1 ', 115.0000,1,   1,   4,   1,1.04910719,  -7.105389, 1.10000, 0.90000, 1.10000, 0.90000
   16,'DECATUR 3 2 ', 115.0000,1,   1,   4,   1,1.04848099,  -7.176324, 1.10000, 0.90000, 1.10000, 0.90000
   17,'MASON CITY 0', 115.0000,1,   1,   4,   1,1.02479434,  -8.305174, 1.10000, 0.90000, 1.10000, 0.90000
   18,'MASON CITY 1', 115.0000,1,   1,   4,   1,1.02478313,  -8.306647, 1.10000, 0.90000, 1.10000, 0.90000
   19,'MASON CITY 2', 115.0000,1,   1,   4,   1,1.02478397,  -8.306404, 1.10000, 0.90000, 1.10000, 0.90000
   20,'MASON CITY 3', 115.0000,1,   1,   4,   1,1.02477694,  -8.307126, 1.10000, 0.90000, 1.10000, 0.90000
   21,'MASON CITY 4', 115.0000,1,   1,   4,   1,1.02471602,  -8.314630, 1.10000, 0.90000, 1.10000, 0.90000
   22,'BETHANY 0   ', 115.0000,1,   1,   4,   1,1.04465318,  -8.021549, 1.10000, 0.90000, 1.10000, 0.90000
   23,'BETHANY 1   ', 115.0000,1,   1,   4,   1,1.04463255,  -8.023805, 1.10000, 0.90000, 1.10000, 0.90000
   24,'BETHANY 2   ', 115.0000,1,   1,   4,   1,1.04461741,  -8.025162, 1.10000, 0.90000, 1.10000, 0.90000
   25,'RANKIN 0    ', 115.0000,1,   1,   6,   1,1.04251397,  -4.003351, 1.10000, 0.90000, 1.10000, 0.90000
   26,'RANKIN 1    ', 115.0000,1,   1,   6,   1,1.04249465,  -4.005417, 1.10000, 0.90000, 1.10000, 0.90000
   27,'WINDSOR 0   ', 115.0000,1,   1,   4,   1,1.04572737,  -7.975065, 1.10000, 0.90000, 1.10000, 0.90000
   28,'WINDSOR 1   ', 115.0000,1,   1,   4,   1,1.04568899,  -7.979706, 1.10000, 0.90000, 1.10000, 0.90000
   29,'PEKIN 2 0   ', 115.0000,1,   1,   2,   1,1.01816857,  -7.054086, 1.10000, 0.90000, 1.10000, 0.90000
   30,'PEKIN 2 1   ', 115.0000,1,   1,   2,   1,1.01724589,  -7.149969, 1.10000, 0.90000, 1.10000, 0.90000
   31,'HEYWORTH 0  ', 115.0000,1,   1,   7,   1,1.02154160,  -5.832082, 1.10000, 0.90000, 1.10000, 0.90000
   32,'HEYWORTH 1  ', 115.0000,1,   1,   7,   1,1.02153265,  -5.833122, 1.10000, 0.90000, 1.10000, 0.90000
   33,'HEYWORTH 2  ', 115.0000,1,   1,   7,   1,1.02144289,  -5.844415, 1.10000, 0.90000, 1.10000, 0.90000
   34,'DECATUR 2 0 ', 115.0000,1,   1,   4,   1,1.03271854,  -9.326455, 1.10000, 0.90000, 1.10000, 0.90000
   35,'DECATUR 2 1 ', 115.0000,1,   1,   4,   1,1.03239202,  -9.365615, 1.10000, 0.90000, 1.10000, 0.90000
   36,'LINCOLN 0   ', 115.0000,1,   1,   7,   1,1.02806973,  -6.178381, 1.10000, 0.90000, 1.10000, 0.90000
   37,'LINCOLN 1   ', 115.0000,1,   1,   7,   1,1.02801764,  -6.184519, 1.10000, 0.90000, 1.10000, 0.90000
   38,'LINCOLN 2   ', 115.0000,1,   1,   7,   1,1.02758467,  -6.232050, 1.10000, 0.90000, 1.10000, 0.90000
   39,'SHERMAN 0   ', 115.0000,1,   1,   4,   1,1.02458501, -10.493093, 1.10000, 0.90000, 1.10000, 0.90000
   40,'SHERMAN 1   ', 115.0000,1,   1,   4,   1,1.02455723, -10.496397, 1.10000, 0.90000, 1.10000, 0.90000
   41,'URBANA 2 0  ', 115.0000,1,   1,   5,   1,1.04627991,  -7.960170, 1.10000, 0.90000, 1.10000, 0.90000
   42,'SPRINGFIE~18', 115.0000,1,   1,   4,   1,1.03014648, -11.069993, 1.10000, 0.90000, 1.10000, 0.90000
   43,'CARLOCK 0   ', 115.0000,1,   1,   2,   1,1.01720095,  -6.400585, 1.10000, 0.90000, 1.10000, 0.90000
   44,'PLEASANT P~1', 115.0000,1,   1,   4,   1,1.02801371, -10.398861, 1.10000, 0.90000, 1.10000, 0.90000
   45,'LE ROY 0    ', 230.0000,1,   1,   7,   1,1.03843677,  -2.068677, 1.10000, 0.90000, 1.10000, 0.90000
   46,'LE ROY 1    ', 115.0000,1,   1,   7,   1,1.03781235,  -2.889424, 1.10000, 0.90000, 1.10000, 0.90000
   47,'DECATUR 1 0 ', 115.0000,1,   1,   4,   1,1.03926182,  -8.195319, 1.10000, 0.90000, 1.10000, 0.90000
   48,'RANTOUL 2 0 ', 115.0000,1,   1,   6,   1,1.03514683,  -4.175009, 1.10000, 0.90000, 1.10000, 0.90000
   49,'RANTOUL 2 1 ',  13.8000,2,   1,   6,   1,1.03999996,  -3.802690, 1.10000, 0.90000, 1.10000, 0.90000
   50,'RANTOUL 2 2 ',  13.8000,2,   1,   6,   1,1.03999996,  -3.896094, 1.10000, 0.90000, 1.10000, 0.90000
   51,'RANTOUL 2 3 ',  13.8000,2,   1,   6,   1,1.03999996,  -3.742621, 1.10000, 0.90000, 1.10000, 0.90000
   52,'RANTOUL 2 4 ',  13.8000,2,   1,   6,   1,1.03999996,  -3.914588, 1.10000, 0.90000, 1.10000, 0.90000
   53,'RANTOUL 2 5 ',  13.8000,2,   1,   6,   1,1.03999996,  -3.349326, 1.10000, 0.90000, 1.10000, 0.90000
   54,'MACON 0     ', 115.0000,1,   1,   4,   1,1.03750050,  -8.493516, 1.10000, 0.90000, 1.10000, 0.90000
   55,'ELLSWORTH ~5', 230.0000,1,   1,   7,   1,1.03707170,  -2.298751, 1.10000, 0.90000, 1.10000, 0.90000
   56,'ELLSWORTH ~6', 115.0000,1,   1,   7,   1,1.03644145,  -2.736583, 1.10000, 0.90000, 1.10000, 0.90000
   57,'MOUNT PULA~1', 115.0000,1,   1,   4,   1,1.02813363, -10.449132, 1.10000, 0.90000, 1.10000, 0.90000
   58,'WAPELLA 0   ', 115.0000,1,   1,   7,   1,1.03494143,  -6.030088, 1.10000, 0.90000, 1.10000, 0.90000
   59,'ROANOKE 0   ', 115.0000,1,   1,   2,   1,1.01878846,  -7.693149, 1.10000, 0.90000, 1.10000, 0.90000
   60,'GREEN VALL~1', 115.0000,1,   1,   2,   1,1.02910972,  -6.554688, 1.10000, 0.90000, 1.10000, 0.90000
   61,'BLOOMINGTO~3', 115.0000,1,   1,   7,   1,1.03515279,  -3.102719, 1.10000, 0.90000, 1.10000, 0.90000
   62,'SPRINGFIE~17', 115.0000,1,   1,   4,   1,1.02671945, -11.318014, 1.10000, 0.90000, 1.10000, 0.90000
   63,'BEMENT 0    ', 115.0000,1,   1,   4,   1,1.04377770,  -8.233031, 1.10000, 0.90000, 1.10000, 0.90000
   64,'PAXTON 1 0  ', 115.0000,1,   1,   6,   1,1.04154170,  -2.532761, 1.10000, 0.90000, 1.10000, 0.90000
   65,'PAXTON 1 1  ',  13.8000,2,   1,   6,   1,1.03999996,   2.119000, 1.10000, 0.90000, 1.10000, 0.90000
   66,'MOUNT ZION 0', 115.0000,1,   1,   4,   1,1.04107010,  -7.846441, 1.10000, 0.90000, 1.10000, 0.90000
   67,'MOUNT ZION 1',  13.8000,2,   1,   4,   1,1.04055882,  -7.732151, 1.10000, 0.90000, 1.10000, 0.90000
   68,'MOUNT ZION 2',  13.8000,2,   1,   4,   1,1.03999996,  -6.669196, 1.10000, 0.90000, 1.10000, 0.90000
   69,'MOUNT ZION 3',  13.8000,2,   1,   4,   1,1.03999996,  -7.421629, 1.10000, 0.90000, 1.10000, 0.90000
   70,'MOUNT ZION 4',  13.8000,2,   1,   4,   1,1.03999996,  -6.959081, 1.10000, 0.90000, 1.10000, 0.90000
   71,'MOUNT ZION 5',  13.8000,2,   1,   4,   1,1.03999996,  -7.481650, 1.10000, 0.90000, 1.10000, 0.90000
   72,'MOUNT ZION 6',  13.8000,2,   1,   4,   1,1.03999996,  -7.512143, 1.10000, 0.90000, 1.10000, 0.90000
   73,'MOUNT ZION 7',  13.8000,2,   1,   4,   1,1.03999996,  -7.193069, 1.10000, 0.90000, 1.10000, 0.90000
   74,'RANTOUL 1 0 ', 115.0000,1,   1,   6,   1,1.02948153,  -5.129640, 1.10000, 0.90000, 1.10000, 0.90000
   75,'BRIMFIELD 0 ', 115.0000,1,   1,   2,   1,1.02897704,  -6.116296, 1.10000, 0.90000, 1.10000, 0.90000
   76,'BRIMFIELD 1 ',  13.8000,2,   1,   2,   1,1.03999996,  -5.641354, 1.10000, 0.90000, 1.10000, 0.90000
   77,'BRIMFIELD 2 ',  13.8000,2,   1,   2,   1,1.03999996,  -5.292751, 1.10000, 0.90000, 1.10000, 0.90000
   78,'BRIMFIELD 3 ',  13.8000,2,   1,   2,   1,1.02897704,  -6.116296, 1.10000, 0.90000, 1.10000, 0.90000
   79,'BRIMFIELD 4 ',  13.8000,2,   1,   2,   1,1.02897704,  -6.116296, 1.10000, 0.90000, 1.10000, 0.90000
   80,'WELDON 0    ', 115.0000,1,   1,   5,   1,1.04756212,  -7.258210, 1.10000, 0.90000, 1.10000, 0.90000
   81,'GIBSON CIT~4', 230.0000,1,   1,   6,   1,1.03815198,  -3.896426, 1.10000, 0.90000, 1.10000, 0.90000
   82,'GIBSON CIT~5', 115.0000,1,   1,   6,   1,1.03531063,  -4.724670, 1.10000, 0.90000, 1.10000, 0.90000
   83,'MINIER 0    ', 115.0000,1,   1,   7,   1,1.03059030,  -5.147124, 1.10000, 0.90000, 1.10000, 0.90000
   84,'HUDSON 0    ', 115.0000,1,   1,   2,   1,1.01923692,  -5.836735, 1.10000, 0.90000, 1.10000, 0.90000
   85,'ATHENS 0    ', 115.0000,1,   1,   4,   1,1.02410328,  -9.891841, 1.10000, 0.90000, 1.10000, 0.90000
   86,'PEORIA HEI~1', 115.0000,1,   1,   2,   1,1.01428950,  -7.633368, 1.10000, 0.90000, 1.10000, 0.90000
   87,'SPRINGFIE~15', 230.0000,1,   1,   3,   1,1.03823781,  -9.281203, 1.10000, 0.90000, 1.10000, 0.90000
   88,'SPRINGFIE~16', 115.0000,1,   1,   3,   1,1.03677416, -10.475486, 1.10000, 0.90000, 1.10000, 0.90000
   89,'CLINTON 3 0 ', 115.0000,1,   1,   7,   1,1.03679562,  -6.001781, 1.10000, 0.90000, 1.10000, 0.90000
   90,'CLINTON 3 1 ',  13.8000,2,   1,   7,   1,1.03999996,  -4.842850, 1.10000, 0.90000, 1.10000, 0.90000
   91,'CLINTON 3 2 ',  13.8000,2,   1,   7,   1,1.03999996,  -5.608287, 1.10000, 0.90000, 1.10000, 0.90000
   92,'CLINTON 3 3 ',  13.8000,2,   1,   7,   1,1.03679562,  -6.001781, 1.10000, 0.90000, 1.10000, 0.90000
   93,'TUSCOLA 2 0 ', 115.0000,1,   1,   4,   1,1.04676342,  -7.705981, 1.10000, 0.90000, 1.10000, 0.90000
   94,'TUSCOLA 2 1 ',  13.8000,2,   1,   4,   1,1.04128456,  -6.897096, 1.10000, 0.90000, 1.10000, 0.90000
   95,'KENNEY 0    ', 115.0000,1,   1,   7,   1,1.04527044,  -6.143695, 1.10000, 0.90000, 1.10000, 0.90000
   96,'MANSFIELD 0 ', 115.0000,1,   1,   7,   1,1.03998423,  -4.622369, 1.10000, 0.90000, 1.10000, 0.90000
   97,'MANITO 0    ', 115.0000,1,   1,   2,   1,1.02662790,  -8.070873, 1.10000, 0.90000, 1.10000, 0.90000
   98,'DUNLAP 0    ', 230.0000,1,   1,   2,   1,1.02597320,  -5.693301, 1.10000, 0.90000, 1.10000, 0.90000
   99,'DUNLAP 1    ', 115.0000,1,   1,   2,   1,1.02175903,  -6.532648, 1.10000, 0.90000, 1.10000, 0.90000
  100,'CHAMPAIGN~10', 115.0000,1,   1,   5,   1,1.05559003,  -7.845164, 1.10000, 0.90000, 1.10000, 0.90000
  101,'PEORIA 7 0  ', 115.0000,1,   1,   2,   1,1.01534188,  -7.486883, 1.10000, 0.90000, 1.10000, 0.90000
  102,'ELLSWORTH ~1', 230.0000,1,   1,   7,   1,1.03758836,  -1.855349, 1.10000, 0.90000, 1.10000, 0.90000
  103,'ELLSWORTH ~2', 115.0000,1,   1,   7,   1,1.03619075,  -2.820525, 1.10000, 0.90000, 1.10000, 0.90000
  104,'ELLSWORTH ~3',  13.8000,2,   1,   7,   1,1.03999996,   1.292357, 1.10000, 0.90000, 1.10000, 0.90000
  105,'ELLSWORTH ~4',  13.8000,2,   1,   7,   1,1.03999996,   3.030149, 1.10000, 0.90000, 1.10000, 0.90000
  106,'TOWANDA 0   ', 115.0000,1,   1,   7,   1,1.03330529,  -3.587524, 1.10000, 0.90000, 1.10000, 0.90000
  107,'BLOOMINGTO~2', 115.0000,1,   1,   7,   1,1.01642525,  -5.897801, 1.10000, 0.90000, 1.10000, 0.90000
  108,'PRINCEVILL~1', 115.0000,1,   1,   2,   1,1.02630997,  -6.590908, 1.10000, 0.90000, 1.10000, 0.90000
  109,'DELAVAN 0   ', 115.0000,1,   1,   4,   1,1.02668858,  -7.119037, 1.10000, 0.90000, 1.10000, 0.90000
  110,'PEORIA 6 0  ', 115.0000,1,   1,   2,   1,1.01539981,  -7.494693, 1.10000, 0.90000, 1.10000, 0.90000
  111,'SAVOY 0     ', 115.0000,1,   1,   5,   1,1.04229963,  -8.069078, 1.10000, 0.90000, 1.10000, 0.90000
  112,'NORMAL 2 0  ', 230.0000,1,   1,   7,   1,1.03388679,  -2.386010, 1.10000, 0.90000, 1.10000, 0.90000
  113,'NORMAL 2 1  ', 115.0000,1,   1,   7,   1,1.02147877,  -5.246294, 1.10000, 0.90000, 1.10000, 0.90000
  114,'NORMAL 2 2  ',  13.8000,2,   1,   7,   1,1.03620350,  -2.072597, 1.10000, 0.90000, 1.10000, 0.90000
  115,'NORMAL 2 3  ',  13.8000,2,   1,   7,   1,1.03999996,   2.075284, 1.10000, 0.90000, 1.10000, 0.90000
  116,'EAST PEORI~1', 230.0000,1,   1,   2,   1,1.02605808,  -5.407570, 1.10000, 0.90000, 1.10000, 0.90000
  117,'EAST PEORI~2', 115.0000,1,   1,   2,   1,1.01940572,  -6.761358, 1.10000, 0.90000, 1.10000, 0.90000
  118,'HANNA CITY 0', 115.0000,1,   1,   2,   1,1.02208626,  -6.761277, 1.10000, 0.90000, 1.10000, 0.90000
  119,'METAMORA 0  ', 115.0000,1,   1,   2,   1,1.01629663,  -7.890283, 1.10000, 0.90000, 1.10000, 0.90000
  120,'GREENVIEW 0 ', 115.0000,1,   1,   4,   1,1.02445233,  -9.260740, 1.10000, 0.90000, 1.10000, 0.90000
  121,'CLINTON 2 0 ', 230.0000,1,   1,   7,   1,1.04137504,  -2.550667, 1.10000, 0.90000, 1.10000, 0.90000
  122,'CLINTON 2 1 ', 115.0000,1,   1,   7,   1,1.03921127,  -3.476706, 1.10000, 0.90000, 1.10000, 0.90000
  123,'BARTONVILL~1', 230.0000,1,   1,   2,   1,1.03177059,  -4.799729, 1.10000, 0.90000, 1.10000, 0.90000
  124,'BARTONVILL~2', 115.0000,1,   1,   2,   1,1.02419949,  -6.311793, 1.10000, 0.90000, 1.10000, 0.90000
  125,'BARTONVILL~3',  13.8000,2,   1,   2,   1,1.03999996,  -2.638002, 1.10000, 0.90000, 1.10000, 0.90000
  126,'BARTONVILL~4',  13.8000,2,   1,   2,   1,1.03999996,  -3.433514, 1.10000, 0.90000, 1.10000, 0.90000
  127,'BARTONVILL~5',  13.8000,2,   1,   2,   1,1.03999996,  -4.153305, 1.10000, 0.90000, 1.10000, 0.90000
  128,'NORMAL 1 0  ', 230.0000,1,   1,   7,   1,1.03366244,  -2.641873, 1.10000, 0.90000, 1.10000, 0.90000
  129,'NORMAL 1 1  ', 115.0000,1,   1,   7,   1,1.01990712,  -5.280933, 1.10000, 0.90000, 1.10000, 0.90000
  130,'LEXINGTON 0 ', 115.0000,1,   1,   7,   1,1.03085375,  -4.215383, 1.10000, 0.90000, 1.10000, 0.90000
  131,'PEORIA 5 0  ', 115.0000,1,   1,   2,   1,1.01595163,  -7.483657, 1.10000, 0.90000, 1.10000, 0.90000
  132,'MORTON 0    ', 115.0000,1,   1,   2,   1,1.01420200,  -7.143976, 1.10000, 0.90000, 1.10000, 0.90000
  133,'PEKIN 1 0   ', 230.0000,1,   1,   2,   1,1.03342807,  -4.376173, 1.10000, 0.90000, 1.10000, 0.90000
  134,'PEKIN 1 1   ', 115.0000,1,   1,   2,   1,1.03156519,  -5.231244, 1.10000, 0.90000, 1.10000, 0.90000
  135,'PEKIN 1 2   ',  13.8000,2,   1,   2,   1,1.03999996,  -1.987898, 1.10000, 0.90000, 1.10000, 0.90000
  136,'PEKIN 1 3   ',  13.8000,2,   1,   2,   1,1.03999996,  -2.419807, 1.10000, 0.90000, 1.10000, 0.90000
  137,'NIANTIC 0   ', 115.0000,1,   1,   4,   1,1.03132582,  -9.719095, 1.10000, 0.90000, 1.10000, 0.90000
  138,'COLFAX 0    ', 115.0000,1,   1,   6,   1,1.03079236,  -5.699318, 1.10000, 0.90000, 1.10000, 0.90000
  139,'EL PASO 0   ', 115.0000,1,   1,   2,   1,1.02141654,  -7.361469, 1.10000, 0.90000, 1.10000, 0.90000
  140,'TREMONT 0   ', 115.0000,1,   1,   2,   1,1.02311027,  -6.390899, 1.10000, 0.90000, 1.10000, 0.90000
  141,'PEORIA 4 0  ', 115.0000,1,   1,   2,   1,1.01535869,  -7.521902, 1.10000, 0.90000, 1.10000, 0.90000
  142,'PEORIA 3 0  ', 115.0000,1,   1,   2,   1,1.01407170,  -7.617783, 1.10000, 0.90000, 1.10000, 0.90000
  143,'CHAMPAIGN ~9', 115.0000,1,   1,   5,   1,1.03725886,  -6.549447, 1.10000, 0.90000, 1.10000, 0.90000
  144,'EUREKA 0    ', 115.0000,1,   1,   2,   1,1.02363884,  -5.928282, 1.10000, 0.90000, 1.10000, 0.90000
  145,'CHATHAM 0   ', 115.0000,1,   1,   3,   1,1.03201675, -11.164121, 1.10000, 0.90000, 1.10000, 0.90000
  146,'HOPEDALE 2 0', 115.0000,1,   1,   7,   1,1.03311837,  -4.010275, 1.10000, 0.90000, 1.10000, 0.90000
  147,'HOPEDALE 2 1',  13.8000,2,   1,   7,   1,1.03999996,   1.000906, 1.10000, 0.90000, 1.10000, 0.90000
  148,'WASHINGTON 0', 115.0000,1,   1,   2,   1,1.01022983,  -8.189318, 1.10000, 0.90000, 1.10000, 0.90000
  149,'SPRINGFIEL~8', 230.0000,1,   1,   3,   1,1.03955591,  -8.879345, 1.10000, 0.90000, 1.10000, 0.90000
  150,'SPRINGFIEL~9', 115.0000,1,   1,   3,   1,1.03966391,  -9.999925, 1.10000, 0.90000, 1.10000, 0.90000
  151,'SPRINGFIE~10',  13.8000,2,   1,   3,   1,1.03999996,  -8.342580, 1.10000, 0.90000, 1.10000, 0.90000
  152,'SPRINGFIE~11',  13.8000,2,   1,   3,   1,1.03999996,  -7.139645, 1.10000, 0.90000, 1.10000, 0.90000
  153,'SPRINGFIE~12',  13.8000,2,   1,   3,   1,1.03999996,  -6.612046, 1.10000, 0.90000, 1.10000, 0.90000
  154,'SPRINGFIE~13',  13.8000,2,   1,   3,   1,1.03999996,  -7.615419, 1.10000, 0.90000, 1.10000, 0.90000
  155,'SPRINGFIE~14',  13.8000,2,   1,   3,   1,1.03999996,  -7.653539, 1.10000, 0.90000, 1.10000, 0.90000
  156,'PEORIA 2 0  ', 230.0000,1,   1,   2,   1,1.03210330,  -4.724707, 1.10000, 0.90000, 1.10000, 0.90000
  157,'PEORIA 2 1  ', 115.0000,1,   1,   2,   1,1.03052056,  -5.439245, 1.10000, 0.90000, 1.10000, 0.90000
  158,'MT ZION 0   ', 115.0000,1,   1,   4,   1,1.04345775,  -7.900145, 1.10000, 0.90000, 1.10000, 0.90000
  159,'BUFFALO 0   ', 115.0000,1,   1,   4,   1,1.02658963, -10.742416, 1.10000, 0.90000, 1.10000, 0.90000
  160,'SPRINGFIEL~6', 115.0000,1,   1,   4,   1,1.03114724, -11.239583, 1.10000, 0.90000, 1.10000, 0.90000
  161,'SPRINGFIEL~7',  13.8000,2,   1,   4,   1,1.03114724, -11.239583, 1.10000, 0.90000, 1.10000, 0.90000
  162,'CONGERVILL~1', 115.0000,1,   1,   2,   1,1.02257907,  -6.221058, 1.10000, 0.90000, 1.10000, 0.90000
  163,'CHAMPAIGN ~1', 115.0000,1,   1,   5,   1,1.04316425,  -7.926244, 1.10000, 0.90000, 1.10000, 0.90000
  164,'CHAMPAIGN ~2',  13.8000,2,   1,   5,   1,1.04316425,  -7.926244, 1.10000, 0.90000, 1.10000, 0.90000
  165,'CHAMPAIGN ~3',  13.8000,2,   1,   5,   1,1.04316425,  -7.926244, 1.10000, 0.90000, 1.10000, 0.90000
  166,'CHAMPAIGN ~4',  13.8000,2,   1,   5,   1,1.04316425,  -7.926244, 1.10000, 0.90000, 1.10000, 0.90000
  167,'CHAMPAIGN ~5',  13.8000,2,   1,   5,   1,1.04147160,  -7.628263, 1.10000, 0.90000, 1.10000, 0.90000
  168,'CHAMPAIGN ~6',  13.8000,2,   1,   5,   1,1.04316425,  -7.926244, 1.10000, 0.90000, 1.10000, 0.90000
  169,'CHAMPAIGN ~7',  13.8000,2,   1,   5,   1,1.04316425,  -7.926244, 1.10000, 0.90000, 1.10000, 0.90000
  170,'CHAMPAIGN ~8',  13.8000,2,   1,   5,   1,1.03999996,  -7.359358, 1.10000, 0.90000, 1.10000, 0.90000
  171,'FISHER 0    ', 115.0000,1,   1,   6,   1,1.02936065,  -5.544471, 1.10000, 0.90000, 1.10000, 0.90000
  172,'HOMER 0     ', 115.0000,1,   1,   5,   1,1.04466248,  -6.737828, 1.10000, 0.90000, 1.10000, 0.90000
  173,'TUSCOLA 1 0 ', 115.0000,1,   1,   5,   1,1.04386938,  -7.824896, 1.10000, 0.90000, 1.10000, 0.90000
  174,'WHITE HEAT~1', 115.0000,1,   1,   5,   1,1.04855609,  -6.975714, 1.10000, 0.90000, 1.10000, 0.90000
  175,'TOLONO 0    ', 115.0000,1,   1,   5,   1,1.04250801,  -8.051141, 1.10000, 0.90000, 1.10000, 0.90000
  176,'SPRINGFIEL~5', 115.0000,1,   1,   3,   1,1.03405702, -10.848998, 1.10000, 0.90000, 1.10000, 0.90000
  177,'MACKINAW 0  ', 115.0000,1,   1,   7,   1,1.02790833,  -5.445402, 1.10000, 0.90000, 1.10000, 0.90000
  178,'URBANA 1 0  ', 230.0000,1,   1,   5,   1,1.04149258,  -4.889523, 1.10000, 0.90000, 1.10000, 0.90000
  179,'URBANA 1 1  ', 115.0000,1,   1,   5,   1,1.04622769,  -6.907941, 1.10000, 0.90000, 1.10000, 0.90000
  180,'SAINT JOSE~1', 115.0000,1,   1,   5,   1,1.04521108,  -7.124937, 1.10000, 0.90000, 1.10000, 0.90000
  181,'SPRINGFIEL~2', 115.0000,1,   1,   4,   1,1.03338921, -11.195232, 1.10000, 0.90000, 1.10000, 0.90000
  182,'SPRINGFIEL~3',  13.8000,2,   1,   4,   1,1.03999996, -10.374461, 1.10000, 0.90000, 1.10000, 0.90000
  183,'SPRINGFIEL~4',  13.8000,2,   1,   4,   1,1.03999996, -10.723283, 1.10000, 0.90000, 1.10000, 0.90000
  184,'MONTICELLO 0', 115.0000,1,   1,   5,   1,1.04922056,  -8.289415, 1.10000, 0.90000, 1.10000, 0.90000
  185,'AUBURN 0    ', 115.0000,1,   1,   3,   1,1.03412914, -10.871112, 1.10000, 0.90000, 1.10000, 0.90000
  186,'HOPEDALE 1 0', 115.0000,1,   1,   2,   1,1.02946830,  -5.915141, 1.10000, 0.90000, 1.10000, 0.90000
  187,'CLINTON 1 0 ', 230.0000,1,   1,   7,   1,1.04110885,  -1.593510, 1.10000, 0.90000, 1.10000, 0.90000
  188,'CLINTON 1 1 ', 115.0000,1,   1,   7,   1,1.04222715,  -4.274235, 1.10000, 0.90000, 1.10000, 0.90000
  189,'CLINTON 1 2 ',  13.8000,3,   1,   7,   1,1.03999996,   0.000000, 1.10000, 0.90000, 1.10000, 0.90000
  190,'MAHOMET 0   ', 115.0000,1,   1,   6,   1,1.02751064,  -5.607695, 1.10000, 0.90000, 1.10000, 0.90000
  191,'VILLA GROV~1', 115.0000,1,   1,   5,   1,1.04607737,  -7.762654, 1.10000, 0.90000, 1.10000, 0.90000
  192,'BLOOMINGTO~1', 115.0000,1,   1,   7,   1,1.01662767,  -5.992680, 1.10000, 0.90000, 1.10000, 0.90000
  193,'PEORIA 1 0  ', 115.0000,1,   1,   2,   1,1.01647472,  -7.379588, 1.10000, 0.90000, 1.10000, 0.90000
  194,'SPRINGFIEL~1', 115.0000,1,   1,   3,   1,1.04008257, -10.703489, 1.10000, 0.90000, 1.10000, 0.90000
  195,'GIBSON CIT~1', 115.0000,1,   1,   6,   1,1.03326011,  -5.127426, 1.10000, 0.90000, 1.10000, 0.90000
  196,'GIBSON CIT~2',  13.8000,2,   1,   6,   1,1.03326011,  -5.127426, 1.10000, 0.90000, 1.10000, 0.90000
  197,'GIBSON CIT~3',  13.8000,2,   1,   6,   1,1.03326011,  -5.127426, 1.10000, 0.90000, 1.10000, 0.90000
  198,'MAPLETON 0  ', 115.0000,1,   1,   2,   1,1.02322340,  -6.849765, 1.10000, 0.90000, 1.10000, 0.90000
  199,'GIFFORD 0   ', 115.0000,1,   1,   6,   1,1.04387903,  -5.721465, 1.10000, 0.90000, 1.10000, 0.90000
  200,'PETERSBURG 0', 115.0000,1,   1,   4,   1,1.02591479,  -9.367606, 1.10000, 0.90000, 1.10000, 0.90000
0 / END OF BUS DATA, BEGIN LOAD DATA
    2,'1 ',1,   1,   2,     7.385,     2.105,     0.000,     0.000,     0.000,     0.000,   1,1
    4,'1 ',1,   1,   4,     1.695,     0.483,     0.000,     0.000,     0.000,     0.000,   1,1
    6,'1 ',1,   1,   6,     7.947,     2.265,     0.000,     0.000,     0.000,     0.000,   1,1
    8,'1 ',1,   1,   2,    23.737,     6.765,     0.000,     0.000,     0.000,     0.000,   1,1
   10,'1 ',1,   1,   2,    42.682,    12.164,     0.000,     0.000,     0.000,     0.000,   1,1
   12,'1 ',1,   1,   4,     0.303,     0.086,     0.000,     0.000,     0.000,     0.000,   1,1
   13,'1 ',1,   1,   4,     2.524,     0.719,     0.000,     0.000,     0.000,     0.000,   1,1
   16,'1 ',1,   1,   4,    44.758,    12.756,     0.000,     0.000,     0.000,     0.000,   1,1
   18,'1 ',1,   1,   4,     0.714,     0.204,     0.000,     0.000,     0.000,     0.000,   1,1
   19,'1 ',1,   1,   4,     0.769,     0.219,     0.000,     0.000,     0.000,     0.000,   1,1
   20,'1 ',1,   1,   4,     1.132,     0.323,     0.000,     0.000,     0.000,     0.000,   1,1
   21,'1 ',1,   1,   4,     4.606,     1.313,     0.000,     0.000,     0.000,     0.000,   1,1
   23,'1 ',1,   1,   4,     1.411,     0.402,     0.000,     0.000,     0.000,     0.000,   1,1
   24,'1 ',1,   1,   4,     2.397,     0.683,     0.000,     0.000,     0.000,     0.000,   1,1
   26,'1 ',1,   1,   6,     1.353,     0.386,     0.000,     0.000,     0.000,     0.000,   1,1
   28,'1 ',1,   1,   4,     2.333,     0.665,     0.000,     0.000,     0.000,     0.000,   1,1
   30,'1 ',1,   1,   2,    59.086,    16.839,     0.000,     0.000,     0.000,     0.000,   1,1
   32,'1 ',1,   1,   7,     0.513,     0.146,     0.000,     0.000,     0.000,     0.000,   1,1
   33,'1 ',1,   1,   7,     6.439,     1.835,     0.000,     0.000,     0.000,     0.000,   1,1
   35,'1 ',1,   1,   4,    20.762,     5.917,     0.000,     0.000,     0.000,     0.000,   1,1
   37,'1 ',1,   1,   7,     3.572,     1.018,     0.000,     0.000,     0.000,     0.000,   1,1
   38,'1 ',1,   1,   7,    29.807,     8.495,     0.000,     0.000,     0.000,     0.000,   1,1
   39,'1 ',1,   1,   4,     1.025,     0.292,     0.000,     0.000,     0.000,     0.000,   1,1
   39,'2 ',1,   1,   4,     6.381,     1.819,     0.000,     0.000,     0.000,     0.000,   1,1
   40,'1 ',1,   1,   4,     2.045,     0.583,     0.000,     0.000,     0.000,     0.000,   1,1
   41,'1 ',1,   1,   5,    38.335,    10.926,     0.000,     0.000,     0.000,     0.000,   1,1
   42,'1 ',1,   1,   4,     1.067,     0.304,     0.000,     0.000,     0.000,     0.000,   1,1
   42,'2 ',1,   1,   4,     9.548,     2.721,     0.000,     0.000,     0.000,     0.000,   1,1
   43,'1 ',1,   1,   2,     2.086,     0.595,     0.000,     0.000,     0.000,     0.000,   1,1
   44,'1 ',1,   1,   4,     0.950,     0.271,     0.000,     0.000,     0.000,     0.000,   1,1
   44,'2 ',1,   1,   4,     3.199,     0.912,     0.000,     0.000,     0.000,     0.000,   1,1
   46,'1 ',1,   1,   7,     6.338,     1.806,     0.000,     0.000,     0.000,     0.000,   1,1
   47,'1 ',1,   1,   4,     1.544,     0.440,     0.000,     0.000,     0.000,     0.000,   1,1
   48,'1 ',1,   1,   6,     1.822,     0.519,     0.000,     0.000,     0.000,     0.000,   1,1
   54,'1 ',1,   1,   4,     0.446,     0.127,     0.000,     0.000,     0.000,     0.000,   1,1
   54,'2 ',1,   1,   4,     2.217,     0.632,     0.000,     0.000,     0.000,     0.000,   1,1
   56,'1 ',1,   1,   7,     0.754,     0.215,     0.000,     0.000,     0.000,     0.000,   1,1
   56,'2 ',1,   1,   7,     0.554,     0.158,     0.000,     0.000,     0.000,     0.000,   1,1
   57,'1 ',1,   1,   4,     2.819,     0.803,     0.000,     0.000,     0.000,     0.000,   1,1
   58,'1 ',1,   1,   7,     0.998,     0.284,     0.000,     0.000,     0.000,     0.000,   1,1
   58,'2 ',1,   1,   7,     1.391,     0.396,     0.000,     0.000,     0.000,     0.000,   1,1
   58,'3 ',1,   1,   7,     1.842,     0.525,     0.000,     0.000,     0.000,     0.000,   1,1
   59,'1 ',1,   1,   2,     0.971,     0.277,     0.000,     0.000,     0.000,     0.000,   1,1
   59,'2 ',1,   1,   2,     3.760,     1.072,     0.000,     0.000,     0.000,     0.000,   1,1
   60,'1 ',1,   1,   2,     2.343,     0.668,     0.000,     0.000,     0.000,     0.000,   1,1
   60,'2 ',1,   1,   2,     1.453,     0.414,     0.000,     0.000,     0.000,     0.000,   1,1
   61,'1 ',1,   1,   7,    20.555,     5.858,     0.000,     0.000,     0.000,     0.000,   1,1
   62,'1 ',1,   1,   4,     8.544,     2.435,     0.000,     0.000,     0.000,     0.000,   1,1
   62,'2 ',1,   1,   4,    12.862,     3.666,     0.000,     0.000,     0.000,     0.000,   1,1
   63,'1 ',1,   1,   4,     3.322,     0.947,     0.000,     0.000,     0.000,     0.000,   1,1
   63,'2 ',1,   1,   4,     2.199,     0.627,     0.000,     0.000,     0.000,     0.000,   1,1
   63,'3 ',1,   1,   4,     2.461,     0.701,     0.000,     0.000,     0.000,     0.000,   1,1
   74,'1 ',1,   1,   6,    18.761,     5.347,     0.000,     0.000,     0.000,     0.000,   1,1
   75,'1 ',1,   1,   2,     3.598,     1.026,     0.000,     0.000,     0.000,     0.000,   1,1
   80,'1 ',1,   1,   5,     0.592,     0.169,     0.000,     0.000,     0.000,     0.000,   1,1
   80,'2 ',1,   1,   5,     0.884,     0.252,     0.000,     0.000,     0.000,     0.000,   1,1
   82,'1 ',1,   1,   6,     5.493,     1.566,     0.000,     0.000,     0.000,     0.000,   1,1
   82,'2 ',1,   1,   6,     2.107,     0.600,     0.000,     0.000,     0.000,     0.000,   1,1
   83,'1 ',1,   1,   7,     0.895,     0.255,     0.000,     0.000,     0.000,     0.000,   1,1
   83,'2 ',1,   1,   7,     2.241,     0.639,     0.000,     0.000,     0.000,     0.000,   1,1
   84,'1 ',1,   1,   2,     3.752,     1.069,     0.000,     0.000,     0.000,     0.000,   1,1
   85,'1 ',1,   1,   4,     4.834,     1.378,     0.000,     0.000,     0.000,     0.000,   1,1
   86,'1 ',1,   1,   2,     8.249,     2.351,     0.000,     0.000,     0.000,     0.000,   1,1
   88,'1 ',1,   1,   3,    49.340,    14.062,     0.000,     0.000,     0.000,     0.000,   1,1
   89,'1 ',1,   1,   7,     8.576,     2.444,     0.000,     0.000,     0.000,     0.000,   1,1
   89,'2 ',1,   1,   7,     2.283,     0.651,     0.000,     0.000,     0.000,     0.000,   1,1
   89,'3 ',1,   1,   7,     2.210,     0.630,     0.000,     0.000,     0.000,     0.000,   1,1
   89,'4 ',1,   1,   7,    49.776,    14.186,     0.000,     0.000,     0.000,     0.000,   1,1
   93,'1 ',1,   1,   4,     2.102,     0.599,     0.000,     0.000,     0.000,     0.000,   1,1
   93,'2 ',1,   1,   4,     0.960,     0.274,     0.000,     0.000,     0.000,     0.000,   1,1
   95,'1 ',1,   1,   7,     1.480,     0.422,     0.000,     0.000,     0.000,     0.000,   1,1
   95,'2 ',1,   1,   7,     0.730,     0.208,     0.000,     0.000,     0.000,     0.000,   1,1
   95,'3 ',1,   1,   7,     0.789,     0.225,     0.000,     0.000,     0.000,     0.000,   1,1
   96,'1 ',1,   1,   7,     2.957,     0.843,     0.000,     0.000,     0.000,     0.000,   1,1
   97,'1 ',1,   1,   2,     0.842,     0.240,     0.000,     0.000,     0.000,     0.000,   1,1
   97,'2 ',1,   1,   2,     0.720,     0.205,     0.000,     0.000,     0.000,     0.000,   1,1
   97,'3 ',1,   1,   2,     5.767,     1.644,     0.000,     0.000,     0.000,     0.000,   1,1
   99,'1 ',1,   1,   2,    12.166,     3.467,     0.000,     0.000,     0.000,     0.000,   1,1
  100,'1 ',1,   1,   5,    37.390,    10.656,     0.000,     0.000,     0.000,     0.000,   1,1
  101,'1 ',1,   1,   2,     0.519,     0.148,     0.000,     0.000,     0.000,     0.000,   1,1
  106,'1 ',1,   1,   7,     2.058,     0.587,     0.000,     0.000,     0.000,     0.000,   1,1
  107,'1 ',1,   1,   7,    52.560,    14.980,     0.000,     0.000,     0.000,     0.000,   1,1
  108,'1 ',1,   1,   2,     0.530,     0.151,     0.000,     0.000,     0.000,     0.000,   1,1
  108,'2 ',1,   1,   2,     4.494,     1.281,     0.000,     0.000,     0.000,     0.000,   1,1
  108,'3 ',1,   1,   2,     4.395,     1.253,     0.000,     0.000,     0.000,     0.000,   1,1
  109,'1 ',1,   1,   4,     1.578,     0.450,     0.000,     0.000,     0.000,     0.000,   1,1
  109,'2 ',1,   1,   4,     3.579,     1.020,     0.000,     0.000,     0.000,     0.000,   1,1
  110,'1 ',1,   1,   2,    10.858,     3.095,     0.000,     0.000,     0.000,     0.000,   1,1
  111,'1 ',1,   1,   5,     8.815,     2.512,     0.000,     0.000,     0.000,     0.000,   1,1
  117,'1 ',1,   1,   2,    34.079,     9.712,     0.000,     0.000,     0.000,     0.000,   1,1
  118,'1 ',1,   1,   2,     3.937,     1.122,     0.000,     0.000,     0.000,     0.000,   1,1
  119,'1 ',1,   1,   2,     0.871,     0.248,     0.000,     0.000,     0.000,     0.000,   1,1
  119,'2 ',1,   1,   2,    16.683,     4.755,     0.000,     0.000,     0.000,     0.000,   1,1
  120,'1 ',1,   1,   4,     1.798,     0.512,     0.000,     0.000,     0.000,     0.000,   1,1
  122,'1 ',1,   1,   7,     0.614,     0.175,     0.000,     0.000,     0.000,     0.000,   1,1
  122,'2 ',1,   1,   7,     0.194,     0.055,     0.000,     0.000,     0.000,     0.000,   1,1
  122,'3 ',1,   1,   7,    14.630,     4.169,     0.000,     0.000,     0.000,     0.000,   1,1
  129,'1 ',1,   1,   7,    77.244,    22.015,     0.000,     0.000,     0.000,     0.000,   1,1
  130,'1 ',1,   1,   7,     4.400,     1.254,     0.000,     0.000,     0.000,     0.000,   1,1
  131,'1 ',1,   1,   2,    30.254,     8.622,     0.000,     0.000,     0.000,     0.000,   1,1
  132,'1 ',1,   1,   2,     1.516,     0.432,     0.000,     0.000,     0.000,     0.000,   1,1
  132,'2 ',1,   1,   2,     1.543,     0.440,     0.000,     0.000,     0.000,     0.000,   1,1
  132,'3 ',1,   1,   2,    23.900,     6.812,     0.000,     0.000,     0.000,     0.000,   1,1
  137,'1 ',1,   1,   4,     1.160,     0.331,     0.000,     0.000,     0.000,     0.000,   1,1
  138,'1 ',1,   1,   6,     2.093,     0.596,     0.000,     0.000,     0.000,     0.000,   1,1
  139,'1 ',1,   1,   2,     5.681,     1.619,     0.000,     0.000,     0.000,     0.000,   1,1
  139,'2 ',1,   1,   2,     1.160,     0.331,     0.000,     0.000,     0.000,     0.000,   1,1
  140,'1 ',1,   1,   2,     8.211,     2.340,     0.000,     0.000,     0.000,     0.000,   1,1
  141,'1 ',1,   1,   2,     1.423,     0.406,     0.000,     0.000,     0.000,     0.000,   1,1
  142,'1 ',1,   1,   2,    37.261,    10.620,     0.000,     0.000,     0.000,     0.000,   1,1
  143,'1 ',1,   1,   5,    26.775,     7.631,     0.000,     0.000,     0.000,     0.000,   1,1
  144,'1 ',1,   1,   2,     9.054,     2.580,     0.000,     0.000,     0.000,     0.000,   1,1
  145,'1 ',1,   1,   3,     1.503,     0.428,     0.000,     0.000,     0.000,     0.000,   1,1
  145,'2 ',1,   1,   3,    16.041,     4.572,     0.000,     0.000,     0.000,     0.000,   1,1
  148,'1 ',1,   1,   2,    32.023,     9.127,     0.000,     0.000,     0.000,     0.000,   1,1
  157,'1 ',1,   1,   2,    14.756,     4.205,     0.000,     0.000,     0.000,     0.000,   1,1
  158,'1 ',1,   1,   4,     8.965,     2.555,     0.000,     0.000,     0.000,     0.000,   1,1
  159,'1 ',1,   1,   4,     1.388,     0.396,     0.000,     0.000,     0.000,     0.000,   1,1
  162,'1 ',1,   1,   2,     1.447,     0.412,     0.000,     0.000,     0.000,     0.000,   1,1
  163,'1 ',1,   1,   5,    45.803,    13.054,     0.000,     0.000,     0.000,     0.000,   1,1
  171,'1 ',1,   1,   6,     4.148,     1.182,     0.000,     0.000,     0.000,     0.000,   1,1
  171,'2 ',1,   1,   6,     3.794,     1.081,     0.000,     0.000,     0.000,     0.000,   1,1
  172,'1 ',1,   1,   5,     1.078,     0.307,     0.000,     0.000,     0.000,     0.000,   1,1
  172,'2 ',1,   1,   5,     2.282,     0.651,     0.000,     0.000,     0.000,     0.000,   1,1
  172,'3 ',1,   1,   5,     2.016,     0.575,     0.000,     0.000,     0.000,     0.000,   1,1
  173,'1 ',1,   1,   5,     1.009,     0.287,     0.000,     0.000,     0.000,     0.000,   1,1
  173,'2 ',1,   1,   5,     7.702,     2.195,     0.000,     0.000,     0.000,     0.000,   1,1
  174,'1 ',1,   1,   5,     1.541,     0.439,     0.000,     0.000,     0.000,     0.000,   1,1
  174,'2 ',1,   1,   5,     1.226,     0.349,     0.000,     0.000,     0.000,     0.000,   1,1
  175,'1 ',1,   1,   5,     2.125,     0.606,     0.000,     0.000,     0.000,     0.000,   1,1
  175,'2 ',1,   1,   5,     5.183,     1.477,     0.000,     0.000,     0.000,     0.000,   1,1
  176,'1 ',1,   1,   3,    19.011,     5.418,     0.000,     0.000,     0.000,     0.000,   1,1
  177,'1 ',1,   1,   7,     1.405,     0.401,     0.000,     0.000,     0.000,     0.000,   1,1
  177,'2 ',1,   1,   7,     3.062,     0.873,     0.000,     0.000,     0.000,     0.000,   1,1
  177,'3 ',1,   1,   7,     6.820,     1.944,     0.000,     0.000,     0.000,     0.000,   1,1
  179,'1 ',1,   1,   5,    23.608,     6.728,     0.000,     0.000,     0.000,     0.000,   1,1
  180,'1 ',1,   1,   5,     7.745,     2.207,     0.000,     0.000,     0.000,     0.000,   1,1
  181,'1 ',1,   1,   4,     1.438,     0.410,     0.000,     0.000,     0.000,     0.000,   1,1
  181,'2 ',1,   1,   4,    46.544,    13.265,     0.000,     0.000,     0.000,     0.000,   1,1
  184,'1 ',1,   1,   5,     0.540,     0.154,     0.000,     0.000,     0.000,     0.000,   1,1
  184,'2 ',1,   1,   5,     0.942,     0.268,     0.000,     0.000,     0.000,     0.000,   1,1
  184,'3 ',1,   1,   5,     9.210,     2.625,     0.000,     0.000,     0.000,     0.000,   1,1
  185,'1 ',1,   1,   3,     1.898,     0.541,     0.000,     0.000,     0.000,     0.000,   1,1
  185,'2 ',1,   1,   3,     1.130,     0.322,     0.000,     0.000,     0.000,     0.000,   1,1
  185,'3 ',1,   1,   3,     7.762,     2.212,     0.000,     0.000,     0.000,     0.000,   1,1
  186,'1 ',1,   1,   2,     2.104,     0.600,     0.000,     0.000,     0.000,     0.000,   1,1
  190,'1 ',1,   1,   6,    16.789,     4.785,     0.000,     0.000,     0.000,     0.000,   1,1
  191,'1 ',1,   1,   5,     0.732,     0.209,     0.000,     0.000,     0.000,     0.000,   1,1
  191,'2 ',1,   1,   5,     2.567,     0.732,     0.000,     0.000,     0.000,     0.000,   1,1
  191,'3 ',1,   1,   5,     0.323,     0.092,     0.000,     0.000,     0.000,     0.000,   1,1
  191,'4 ',1,   1,   5,     3.605,     1.027,     0.000,     0.000,     0.000,     0.000,   1,1
  192,'1 ',1,   1,   7,    52.741,    15.031,     0.000,     0.000,     0.000,     0.000,   1,1
  193,'1 ',1,   1,   2,    21.988,     6.266,     0.000,     0.000,     0.000,     0.000,   1,1
  194,'1 ',1,   1,   3,    37.575,    10.709,     0.000,     0.000,     0.000,     0.000,   1,1
  198,'1 ',1,   1,   2,     5.373,     1.531,     0.000,     0.000,     0.000,     0.000,   1,1
  199,'1 ',1,   1,   6,     2.245,     0.640,     0.000,     0.000,     0.000,     0.000,   1,1
  199,'2 ',1,   1,   6,     2.010,     0.573,     0.000,     0.000,     0.000,     0.000,   1,1
  200,'1 ',1,   1,   4,     0.709,     0.202,     0.000,     0.000,     0.000,     0.000,   1,1
  200,'2 ',1,   1,   4,     0.951,     0.271,     0.000,     0.000,     0.000,     0.000,   1,1
  200,'3 ',1,   1,   4,     7.683,     2.190,     0.000,     0.000,     0.000,     0.000,   1,1
0 / END OF LOAD DATA, BEGIN FIXED SHUNT DATA
0 / END OF FIXED SHUNT DATA, BEGIN GENERATOR DATA
   49,'1 ',     1.360,     0.884,     2.110,    -0.550,1.04000,    0,     5.440,   0.00000,   0.31650,   0.00000,   0.00000,1.00000,1,  100.0,     4.530,     1.360,   1,1.0000,   0,1.0000,   0,1.0000,   0,1.0000,0, 1.0000
   50,'1 ',     1.360,     1.179,     2.110,    -0.550,1.04000,    0,     5.440,   0.00000,   0.12950,   0.00000,   0.00000,1.00000,1,  100.0,     4.530,     1.360,   1,1.0000,   0,1.0000,   0,1.0000,   0,1.0000,0, 1.0000
   51,'1 ',     1.360,     0.769,     2.110,    -0.550,1.04000,    0,     5.440,   0.00000,   0.15200,   0.00000,   0.00000,1.00000,1,  100.0,     4.530,     1.360,   1,1.0000,   0,1.0000,   0,1.0000,   0,1.0000,0, 1.0000
   52,'1 ',     1.360,     1.254,     2.110,    -0.550,1.04000,    0,     5.440,   0.00000,   0.15350,   0.00000,   0.00000,1.00000,1,  100.0,     4.530,     1.360,   1,1.0000,   0,1.0000,   0,1.0000,   0,1.0000,0, 1.0000
   53,'1 ',     2.720,     0.795,     4.230,    -1.110,1.04000,    0,    10.880,   0.00000,   0.21750,   0.00000,   0.00000,1.00000,1,  100.0,     9.070,     2.720,   1,1.0000,   0,1.0000,   0,1.0000,   0,1.0000,0, 1.0000
   65,'1 ',    86.500,     0.844,    32.040,   -21.660,1.04000,    0,   180.480,   0.00000,   0.13350,   0.00000,   0.00000,1.00000,1,  100.0,   150.400,    45.120,   1,1.0000,   0,1.0000,   0,1.0000,   0,1.0000,1, 1.0000
   67,'1 ',     1.410,    -0.570,     2.190,    -0.570,1.04000,    0,     5.640,   0.00000,   0.29190,   0.00000,   0.00000,1.00000,1,  100.0,     4.700,     1.410,   1,1.0000,   0,1.0000,   0,1.0000,   0,1.0000,0, 1.0000
   68,'1 ',     8.380,    -0.552,    13.010,    -3.410,1.04000,    0,    33.500,   0.00000,   0.09040,   0.00000,   0.00000,1.00000,1,  100.0,    27.920,     8.380,   1,1.0000,   0,1.0000,   0,1.0000,   0,1.0000,0, 1.0000
   69,'1 ',     8.380,    -1.529,    13.010,    -3.410,1.04000,    0,    33.500,   0.00000,   0.28580,   0.00000,   0.00000,1.00000,1,  100.0,    27.920,     8.380,   1,1.0000,   0,1.0000,   0,1.0000,   0,1.0000,0, 1.0000
   70,'1 ',     8.380,    -0.782,    13.010,    -3.410,1.04000,    0,    33.500,   0.00000,   0.18540,   0.00000,   0.00000,1.00000,1,  100.0,    27.920,     8.380,   1,1.0000,   0,1.0000,   0,1.0000,   0,1.0000,0, 1.0000
   71,'1 ',     8.380,    -1.701,    13.010,    -3.410,1.04000,    0,    33.500,   0.00000,   0.15650,   0.00000,   0.00000,1.00000,1,  100.0,    27.920,     8.380,   1,1.0000,   0,1.0000,   0,1.0000,   0,1.0000,0, 1.0000
   72,'1 ',     8.380,    -1.864,    13.010,    -3.410,1.04000,    0,    33.500,   0.00000,   0.17590,   0.00000,   0.00000,1.00000,1,  100.0,    27.920,     8.380,   1,1.0000,   0,1.0000,   0,1.0000,   0,1.0000,0, 1.0000
   73,'1 ',     8.380,    -1.106,    13.010,    -3.410,1.04000,    0,    33.500,   0.00000,   0.24250,   0.00000,   0.00000,1.00000,1,  100.0,    27.920,     8.380,   1,1.0000,   0,1.0000,   0,1.0000,   0,1.0000,0, 1.0000
   76,'1 ',     1.200,     1.407,     2.040,    -0.440,1.04000,    0,     4.800,   0.00000,   0.20816,   0.00000,   0.00000,1.00000,1,  100.0,     4.000,     1.200,   1,1.0000,   0,1.0000,   0,1.0000,   0,1.0000,0, 1.0000
   77,'1 ',     0.720,     0.502,     1.220,    -0.270,1.04000,    0,     2.880,   0.00000,   0.14170,   0.00000,   0.00000,1.00000,1,  100.0,     2.400,     0.720,   1,1.0000,   0,1.0000,   0,1.0000,   0,1.0000,0, 1.0000
   78,'1 ',     5.400,     4.176,     9.160,    -2.000,1.04000,    0,    21.600,   0.00000,   0.17850,   0.00000,   0.00000,1.00000,0,  100.0,    18.000,     5.400,   1,1.0000,   0,1.0000,   0,1.0000,   0,1.0000,0, 1.0000
   79,'1 ',     5.400,     3.480,     9.160,    -2.000,1.04000,    0,    21.600,   0.00000,   0.14900,   0.00000,   0.00000,1.00000,0,  100.0,    18.000,     5.400,   1,1.0000,   0,1.0000,   0,1.0000,   0,1.0000,0, 1.0000
   90,'1 ',     0.960,     0.131,     1.630,    -0.360,1.04000,    0,     3.840,   0.00000,   0.13550,   0.00000,   0.00000,1.00000,1,  100.0,     3.200,     0.960,   1,1.0000,   0,1.0000,   0,1.0000,   0,1.0000,0, 1.0000
   91,'1 ',     1.500,     0.594,     2.550,    -0.550,1.04000,    0,     6.000,   0.00000,   0.15790,   0.00000,   0.00000,1.00000,1,  100.0,     5.000,     1.500,   1,1.0000,   0,1.0000,   0,1.0000,   0,1.0000,0, 1.0000
   92,'1 ',     1.890,     3.210,     3.210,    -0.700,1.04000,    0,     7.560,   0.00000,   0.33590,   0.00000,   0.00000,1.00000,0,  100.0,     6.300,     1.890,   1,1.0000,   0,1.0000,   0,1.0000,   0,1.0000,0, 1.0000
   94,'1 ',     5.400,    -2.200,     8.390,    -2.200,1.04000,    0,    21.600,   0.00000,   0.15520,   0.00000,   0.00000,1.00000,1,  100.0,    18.000,     5.400,   1,1.0000,   0,1.0000,   0,1.0000,   0,1.0000,0, 1.0000
  104,'1 ',    67.600,     3.096,    21.090,   -14.260,1.04000,    0,   118.800,   0.00000,   0.09590,   0.00000,   0.00000,1.00000,1,  100.0,    99.000,    29.700,   1,1.0000,   0,1.0000,   0,1.0000,   0,1.0000,1, 1.0000
  105,'1 ',   154.800,     8.292,    42.170,   -28.510,1.04000,    0,   237.600,   0.00000,   0.23030,   0.00000,   0.00000,1.00000,1,  100.0,   198.000,    59.400,   1,1.0000,   0,1.0000,   0,1.0000,   0,1.0000,1, 1.0000
  114,'1 ',     1.400,     0.360,     0.360,    -0.240,1.04000,    0,     2.040,   0.00000,   0.19270,   0.00000,   0.00000,1.00000,1,  100.0,     1.700,     0.510,   1,1.0000,   0,1.0000,   0,1.0000,   0,1.0000,1, 1.0000
  115,'1 ',   133.500,    12.596,    31.950,   -21.600,1.04000,    0,   180.000,   0.00000,   0.15530,   0.00000,   0.00000,1.00000,1,  100.0,   150.000,    45.000,   1,1.0000,   0,1.0000,   0,1.0000,   0,1.0000,1, 1.0000
  125,'1 ',    39.020,     7.244,    60.600,   -15.870,1.04000,    0,   156.060,   0.00000,   0.26300,   0.00000,   0.00000,1.00000,1,  100.0,   130.050,    39.020,   1,1.0000,   0,1.0000,   0,1.0000,   0,1.0000,0, 1.0000
  126,'1 ',    39.020,    12.546,    60.600,   -15.870,1.04000,    0,   156.060,   0.00000,   0.11410,   0.00000,   0.00000,1.00000,1,  100.0,   130.050,    39.020,   1,1.0000,   0,1.0000,   0,1.0000,   0,1.0000,0, 1.0000
  127,'1 ',    39.020,    25.990,    60.600,   -15.870,1.04000,    0,   156.060,   0.00000,   0.09060,   0.00000,   0.00000,1.00000,1,  100.0,   130.050,    39.020,   1,1.0000,   0,1.0000,   0,1.0000,   0,1.0000,0, 1.0000
  135,'1 ',   133.920,    21.463,   208.020,   -54.460,1.04000,    0,   535.680,   0.00000,   0.25390,   0.00000,   0.00000,1.00000,1,  100.0,   446.400,   133.920,   1,1.0000,   0,1.0000,   0,1.0000,   0,1.0000,0, 1.0000
  136,'1 ',   133.920,    25.058,   208.020,   -54.460,1.04000,    0,   535.680,   0.00000,   0.20220,   0.00000,   0.00000,1.00000,1,  100.0,   446.400,   133.920,   1,1.0000,   0,1.0000,   0,1.0000,   0,1.0000,0, 1.0000
  147,'1 ',    92.400,     8.795,    21.410,   -14.470,1.04000,    0,   120.600,   0.00000,   0.34930,   0.00000,   0.00000,1.00000,1,  100.0,   100.500,    30.150,   1,1.0000,   0,1.0000,   0,1.0000,   0,1.0000,1, 1.0000
  151,'1 ',     1.620,     0.023,     2.520,    -0.660,1.04000,    0,     6.480,   0.00000,   0.14830,   0.00000,   0.00000,1.00000,1,  100.0,     5.400,     1.620,   1,1.0000,   0,1.0000,   0,1.0000,   0,1.0000,0, 1.0000
  152,'1 ',    23.170,     0.270,    35.990,    -9.420,1.04000,    0,    92.670,   0.00000,   0.22960,   0.00000,   0.00000,1.00000,1,  100.0,    77.220,    23.170,   1,1.0000,   0,1.0000,   0,1.0000,   0,1.0000,0, 1.0000
  153,'1 ',    23.170,     0.020,    35.990,    -9.420,1.04000,    0,    92.670,   0.00000,   0.22210,   0.00000,   0.00000,1.00000,1,  100.0,    77.220,    23.170,   1,1.0000,   0,1.0000,   0,1.0000,   0,1.0000,0, 1.0000
  154,'1 ',    23.170,     0.144,    35.990,    -9.420,1.04000,    0,    92.670,   0.00000,   0.19600,   0.00000,   0.00000,1.00000,1,  100.0,    77.220,    23.170,   1,1.0000,   0,1.0000,   0,1.0000,   0,1.0000,0, 1.0000
  155,'1 ',    23.170,     0.132,    35.990,    -9.420,1.04000,    0,    92.670,   0.00000,   0.14960,   0.00000,   0.00000,1.00000,1,  100.0,    77.220,    23.170,   1,1.0000,   0,1.0000,   0,1.0000,   0,1.0000,0, 1.0000
  161,'1 ',    41.580,    36.305,    70.550,   -15.380,1.04000,    0,   166.320,   0.00000,   0.25290,   0.00000,   0.00000,1.00000,0,  100.0,   138.600,    41.580,   1,1.0000,   0,1.0000,   0,1.0000,   0,1.0000,0, 1.0000
  164,'1 ',     3.600,     6.110,     6.110,    -1.330,1.04000,    0,    14.400,   0.00000,   0.12260,   0.00000,   0.00000,1.00000,0,  100.0,    12.000,     3.600,   1,1.0000,   0,1.0000,   0,1.0000,   0,1.0000,0, 1.0000
  165,'1 ',     7.800,    13.230,    13.230,    -2.890,1.04000,    0,    31.200,   0.00000,   0.20340,   0.00000,   0.00000,1.00000,0,  100.0,    26.000,     7.800,   1,1.0000,   0,1.0000,   0,1.0000,   0,1.0000,0, 1.0000
  166,'1 ',     2.820,     4.780,     4.780,    -1.040,1.04000,    0,    11.280,   0.00000,   0.13940,   0.00000,   0.00000,1.00000,0,  100.0,     9.400,     2.820,   1,1.0000,   0,1.0000,   0,1.0000,   0,1.0000,0, 1.0000
  167,'1 ',     2.820,    -1.040,     4.780,    -1.040,1.04000,    0,    11.280,   0.00000,   0.28230,   0.00000,   0.00000,1.00000,1,  100.0,     9.400,     2.820,   1,1.0000,   0,1.0000,   0,1.0000,   0,1.0000,0, 1.0000
  168,'1 ',     2.820,     4.780,     4.780,    -1.040,1.04000,    0,    11.280,   0.00000,   0.12050,   0.00000,   0.00000,1.00000,0,  100.0,     9.400,     2.820,   1,1.0000,   0,1.0000,   0,1.0000,   0,1.0000,0, 1.0000
  169,'1 ',     2.820,     4.780,     4.780,    -1.040,1.04000,    0,    11.280,   0.00000,   0.19670,   0.00000,   0.00000,1.00000,0,  100.0,     9.400,     2.820,   1,1.0000,   0,1.0000,   0,1.0000,   0,1.0000,0, 1.0000
  170,'1 ',     2.820,    -0.987,     4.780,    -1.040,1.04000,    0,    11.280,   0.00000,   0.11190,   0.00000,   0.00000,1.00000,1,  100.0,     9.400,     2.820,   1,1.0000,   0,1.0000,   0,1.0000,   0,1.0000,0, 1.0000
  182,'1 ',     5.250,     2.152,     8.160,    -2.140,1.04000,    0,    21.000,   0.00000,   0.13110,   0.00000,   0.00000,1.00000,1,  100.0,    17.500,     5.250,   1,1.0000,   0,1.0000,   0,1.0000,   0,1.0000,0, 1.0000
  183,'1 ',     7.980,     5.726,    12.400,    -3.250,1.04000,    0,    31.920,   0.00000,   0.13850,   0.00000,   0.00000,1.00000,1,  100.0,    26.600,     7.980,   1,1.0000,   0,1.0000,   0,1.0000,   0,1.0000,0, 1.0000
  189,'1 ',   384.367,   -24.154,   209.450,   -46.670,1.04000,    0,   682.980,   0.00000,   0.15120,   0.00000,   0.00000,1.00000,1,  100.0,   569.150,   170.750,   1,1.0000,   0,1.0000,   0,1.0000,   0,1.0000,0, 1.0000
  196,'1 ',    20.250,    18.778,    34.360,    -7.490,1.04000,    0,    81.000,   0.00000,   0.17730,   0.00000,   0.00000,1.00000,0,  100.0,    67.500,    20.250,   1,1.0000,   0,1.0000,   0,1.0000,   0,1.0000,0, 1.0000
  197,'1 ',    20.250,    13.388,    34.360,    -7.490,1.04000,    0,    81.000,   0.00000,   1.00000,   0.00000,   0.00000,1.00000,0,  100.0,    67.500,    20.250,   1,1.0000,   0,1.0000,   0,1.0000,   0,1.0000,0, 1.0000
0 / END OF GENERATOR DATA, BEGIN BRANCH DATA
     2,     1,'1 ',6.73057E-4,3.33871E-3,0.00000E0, 100.00,   0.00,   0.00,  0.00000,  0.00000,  0.00000,  0.00000,1,1,   0.0,   1,1.0000,   0,1.0000,   0,1.0000,   0,1.0000
     1,   119,'1 ',1.85418E-2,1.19758E-1,2.28477E-2, 221.10,   0.00,   0.00,  0.00000,  0.00000,  0.00000,  0.00000,1,1,   0.0,   1,1.0000,   0,1.0000,   0,1.0000,   0,1.0000
   124,     1,'1 ',5.61527E-3,3.62680E-2,6.91926E-3, 221.10,   0.00,   0.00,  0.00000,  0.00000,  0.00000,  0.00000,1,1,   0.0,   1,1.0000,   0,1.0000,   0,1.0000,   0,1.0000
   193,     1,'1 ',4.25792E-3,2.75012E-2,5.24671E-3, 221.10,   0.00,   0.00,  0.00000,  0.00000,  0.00000,  0.00000,1,1,   0.0,   1,1.0000,   0,1.0000,   0,1.0000,   0,1.0000
     4,     3,'1 ',5.72913E-4,3.30300E-3,0.00000E0, 100.00,   0.00,   0.00,  0.00000,  0.00000,  0.00000,  0.00000,1,1,   0.0,   1,1.0000,   0,1.0000,   0,1.0000,   0,1.0000
    57,     3,'1 ',8.50453E-3,5.80981E-2,9.88457E-3, 221.10,   0.00,   0.00,  0.00000,  0.00000,  0.00000,  0.00000,1,1,   0.0,   1,1.0000,   0,1.0000,   0,1.0000,   0,1.0000
     3,   137,'1 ',5.88885E-3,3.80350E-2,7.25638E-3, 221.10,   0.00,   0.00,  0.00000,  0.00000,  0.00000,  0.00000,1,1,   0.0,   1,1.0000,   0,1.0000,   0,1.0000,   0,1.0000
     6,     5,'1 ',6.93558E-4,3.33744E-3,0.00000E0, 100.00,   0.00,   0.00,  0.00000,  0.00000,  0.00000,  0.00000,1,1,   0.0,   1,1.0000,   0,1.0000,   0,1.0000,   0,1.0000
    48,     5,'1 ',6.24597E-3,4.35129E-2,7.11307E-3, 221.10,   0.00,   0.00,  0.00000,  0.00000,  0.00000,  0.00000,1,1,   0.0,   1,1.0000,   0,1.0000,   0,1.0000,   0,1.0000
     5,    64,'1 ',7.87689E-3,5.48749E-2,8.97041E-3, 221.10,   0.00,   0.00,  0.00000,  0.00000,  0.00000,  0.00000,1,1,   0.0,   1,1.0000,   0,1.0000,   0,1.0000,   0,1.0000
     8,     7,'1 ',6.33898E-4,3.18908E-3,0.00000E0, 100.00,   0.00,   0.00,  0.00000,  0.00000,  0.00000,  0.00000,1,1,   0.0,   1,1.0000,   0,1.0000,   0,1.0000,   0,1.0000
     7,    86,'1 ',3.75602E-3,2.42595E-2,4.62826E-3, 221.10,   0.00,   0.00,  0.00000,  0.00000,  0.00000,  0.00000,1,1,   0.0,   1,1.0000,   0,1.0000,   0,1.0000,   0,1.0000
     7,   101,'1 ',3.59687E-3,2.32315E-2,4.43214E-3, 221.10,   0.00,   0.00,  0.00000,  0.00000,  0.00000,  0.00000,1,1,   0.0,   1,1.0000,   0,1.0000,   0,1.0000,   0,1.0000
     7,   148,'1 ',8.66716E-3,5.59797E-2,1.06799E-2, 221.10,   0.00,   0.00,  0.00000,  0.00000,  0.00000,  0.00000,1,1,   0.0,   1,1.0000,   0,1.0000,   0,1.0000,   0,1.0000
    10,     9,'1 ',5.85063E-4,3.96652E-3,0.00000E0, 100.00,   0.00,   0.00,  0.00000,  0.00000,  0.00000,  0.00000,1,1,   0.0,   1,1.0000,   0,1.0000,   0,1.0000,   0,1.0000
     9,   124,'1 ',8.06902E-3,5.51230E-2,9.37839E-3, 221.10,   0.00,   0.00,  0.00000,  0.00000,  0.00000,  0.00000,1,1,   0.0,   1,1.0000,   0,1.0000,   0,1.0000,   0,1.0000
   131,     9,'1 ',4.13882E-3,2.67319E-2,5.09995E-3, 221.10,   0.00,   0.00,  0.00000,  0.00000,  0.00000,  0.00000,1,1,   0.0,   1,1.0000,   0,1.0000,   0,1.0000,   0,1.0000
     9,   141,'1 ',4.44559E-3,3.09705E-2,5.06275E-3, 221.10,   0.00,   0.00,  0.00000,  0.00000,  0.00000,  0.00000,1,1,   0.0,   1,1.0000,   0,1.0000,   0,1.0000,   0,1.0000
     9,   193,'1 ',3.69525E-3,2.52439E-2,4.29489E-3, 221.10,   0.00,   0.00,  0.00000,  0.00000,  0.00000,  0.00000,1,1,   0.0,   1,1.0000,   0,1.0000,   0,1.0000,   0,1.0000
    12,    11,'1 ',5.33505E-4,3.53278E-3,0.00000E0, 100.00,   0.00,   0.00,  0.00000,  0.00000,  0.00000,  0.00000,1,1,   0.0,   1,1.0000,   0,1.0000,   0,1.0000,   0,1.0000
    13,    11,'1 ',6.19088E-4,3.60638E-3,0.00000E0, 100.00,   0.00,   0.00,  0.00000,  0.00000,  0.00000,  0.00000,1,1,   0.0,   1,1.0000,   0,1.0000,   0,1.0000,   0,1.0000
    11,    15,'1 ',1.04075E-2,6.72204E-2,1.28244E-2, 221.10,   0.00,   0.00,  0.00000,  0.00000,  0.00000,  0.00000,1,1,   0.0,   1,1.0000,   0,1.0000,   0,1.0000,   0,1.0000
    11,    93,'1 ',1.83938E-2,1.28141E-1,2.09473E-2, 221.10,   0.00,   0.00,  0.00000,  0.00000,  0.00000,  0.00000,1,1,   0.0,   1,1.0000,   0,1.0000,   0,1.0000,   0,1.0000
   158,    11,'1 ',8.51933E-3,5.81992E-2,9.90177E-3, 221.10,   0.00,   0.00,  0.00000,  0.00000,  0.00000,  0.00000,1,1,   0.0,   1,1.0000,   0,1.0000,   0,1.0000,   0,1.0000
    14,   121,'1 ',7.01262E-3,5.00985E-2,9.13368E-2, 402.36,   0.00,   0.00,  0.00000,  0.00000,  0.00000,  0.00000,1,1,   0.0,   1,1.0000,   0,1.0000,   0,1.0000,   0,1.0000
    14,   149,'1 ',9.13264E-3,6.52439E-2,1.18949E-1, 402.36,   0.00,   0.00,  0.00000,  0.00000,  0.00000,  0.00000,1,1,   0.0,   1,1.0000,   0,1.0000,   0,1.0000,   0,1.0000
    16,    15,'1 ',5.52965E-4,3.20024E-3,0.00000E0, 100.00,   0.00,   0.00,  0.00000,  0.00000,  0.00000,  0.00000,1,1,   0.0,   1,1.0000,   0,1.0000,   0,1.0000,   0,1.0000
    18,    17,'1 ',5.02930E-4,3.92604E-3,0.00000E0, 100.00,   0.00,   0.00,  0.00000,  0.00000,  0.00000,  0.00000,1,1,   0.0,   1,1.0000,   0,1.0000,   0,1.0000,   0,1.0000
    19,    17,'1 ',5.14285E-4,3.07858E-3,0.00000E0, 100.00,   0.00,   0.00,  0.00000,  0.00000,  0.00000,  0.00000,1,1,   0.0,   1,1.0000,   0,1.0000,   0,1.0000,   0,1.0000
    20,    17,'1 ',6.23304E-4,3.33885E-3,0.00000E0, 100.00,   0.00,   0.00,  0.00000,  0.00000,  0.00000,  0.00000,1,1,   0.0,   1,1.0000,   0,1.0000,   0,1.0000,   0,1.0000
    21,    17,'1 ',6.19771E-4,3.94003E-3,0.00000E0, 100.00,   0.00,   0.00,  0.00000,  0.00000,  0.00000,  0.00000,1,1,   0.0,   1,1.0000,   0,1.0000,   0,1.0000,   0,1.0000
   109,    17,'1 ',9.78939E-3,6.81983E-2,1.11484E-2, 221.10,   0.00,   0.00,  0.00000,  0.00000,  0.00000,  0.00000,1,1,   0.0,   1,1.0000,   0,1.0000,   0,1.0000,   0,1.0000
    17,   120,'1 ',1.03160E-2,7.04727E-2,1.19899E-2, 221.10,   0.00,   0.00,  0.00000,  0.00000,  0.00000,  0.00000,1,1,   0.0,   1,1.0000,   0,1.0000,   0,1.0000,   0,1.0000
    23,    22,'1 ',6.15964E-4,3.22174E-3,0.00000E0, 100.00,   0.00,   0.00,  0.00000,  0.00000,  0.00000,  0.00000,1,1,   0.0,   1,1.0000,   0,1.0000,   0,1.0000,   0,1.0000
    24,    22,'1 ',6.87456E-4,3.06686E-3,0.00000E0, 100.00,   0.00,   0.00,  0.00000,  0.00000,  0.00000,  0.00000,1,1,   0.0,   1,1.0000,   0,1.0000,   0,1.0000,   0,1.0000
    22,    27,'1 ',1.13789E-2,7.34942E-2,1.40213E-2, 221.10,   0.00,   0.00,  0.00000,  0.00000,  0.00000,  0.00000,1,1,   0.0,   1,1.0000,   0,1.0000,   0,1.0000,   0,1.0000
   158,    22,'1 ',1.27015E-2,8.67693E-2,1.47626E-2, 221.10,   0.00,   0.00,  0.00000,  0.00000,  0.00000,  0.00000,1,1,   0.0,   1,1.0000,   0,1.0000,   0,1.0000,   0,1.0000
    26,    25,'1 ',6.10053E-4,3.07070E-3,0.00000E0, 100.00,   0.00,   0.00,  0.00000,  0.00000,  0.00000,  0.00000,1,1,   0.0,   1,1.0000,   0,1.0000,   0,1.0000,   0,1.0000
    25,    64,'1 ',7.64278E-3,5.32439E-2,8.70379E-3, 221.10,   0.00,   0.00,  0.00000,  0.00000,  0.00000,  0.00000,1,1,   0.0,   1,1.0000,   0,1.0000,   0,1.0000,   0,1.0000
   199,    25,'1 ',9.90935E-3,6.40028E-2,1.22105E-2, 221.10,   0.00,   0.00,  0.00000,  0.00000,  0.00000,  0.00000,1,1,   0.0,   1,1.0000,   0,1.0000,   0,1.0000,   0,1.0000
    28,    27,'1 ',5.87363E-4,3.96375E-3,0.00000E0, 100.00,   0.00,   0.00,  0.00000,  0.00000,  0.00000,  0.00000,1,1,   0.0,   1,1.0000,   0,1.0000,   0,1.0000,   0,1.0000
    27,    93,'1 ',2.51719E-2,1.75362E-1,2.86664E-2, 221.10,   0.00,   0.00,  0.00000,  0.00000,  0.00000,  0.00000,1,1,   0.0,   1,1.0000,   0,1.0000,   0,1.0000,   0,1.0000
    27,   158,'1 ',2.04286E-2,1.31945E-1,2.51726E-2, 221.10,   0.00,   0.00,  0.00000,  0.00000,  0.00000,  0.00000,1,1,   0.0,   1,1.0000,   0,1.0000,   0,1.0000,   0,1.0000
    30,    29,'1 ',6.93832E-4,3.13121E-3,0.00000E0, 100.00,   0.00,   0.00,  0.00000,  0.00000,  0.00000,  0.00000,1,1,   0.0,   1,1.0000,   0,1.0000,   0,1.0000,   0,1.0000
   124,    29,'1 ',5.56114E-3,3.87420E-2,6.33316E-3, 221.10,   0.00,   0.00,  0.00000,  0.00000,  0.00000,  0.00000,1,1,   0.0,   1,1.0000,   0,1.0000,   0,1.0000,   0,1.0000
    29,   140,'1 ',7.89540E-3,5.50038E-2,8.99148E-3, 221.10,   0.00,   0.00,  0.00000,  0.00000,  0.00000,  0.00000,1,1,   0.0,   1,1.0000,   0,1.0000,   0,1.0000,   0,1.0000
    32,    31,'1 ',6.66645E-4,3.88361E-3,0.00000E0, 100.00,   0.00,   0.00,  0.00000,  0.00000,  0.00000,  0.00000,1,1,   0.0,   1,1.0000,   0,1.0000,   0,1.0000,   0,1.0000
    33,    31,'1 ',5.27695E-4,3.63861E-3,0.00000E0, 100.00,   0.00,   0.00,  0.00000,  0.00000,  0.00000,  0.00000,1,1,   0.0,   1,1.0000,   0,1.0000,   0,1.0000,   0,1.0000
   177,    31,'1 ',8.40589E-3,5.85602E-2,9.57284E-3, 221.10,   0.00,   0.00,  0.00000,  0.00000,  0.00000,  0.00000,1,1,   0.0,   1,1.0000,   0,1.0000,   0,1.0000,   0,1.0000
   192,    31,'1 ',8.08769E-3,5.52505E-2,9.40009E-3, 221.10,   0.00,   0.00,  0.00000,  0.00000,  0.00000,  0.00000,1,1,   0.0,   1,1.0000,   0,1.0000,   0,1.0000,   0,1.0000
    35,    34,'1 ',5.75392E-4,3.67378E-3,0.00000E0, 100.00,   0.00,   0.00,  0.00000,  0.00000,  0.00000,  0.00000,1,1,   0.0,   1,1.0000,   0,1.0000,   0,1.0000,   0,1.0000
    34,    54,'1 ',6.26790E-3,4.28187E-2,7.28500E-3, 221.10,   0.00,   0.00,  0.00000,  0.00000,  0.00000,  0.00000,1,1,   0.0,   1,1.0000,   0,1.0000,   0,1.0000,   0,1.0000
    34,   137,'1 ',6.91136E-3,4.46393E-2,8.51634E-3, 221.10,   0.00,   0.00,  0.00000,  0.00000,  0.00000,  0.00000,1,1,   0.0,   1,1.0000,   0,1.0000,   0,1.0000,   0,1.0000
    37,    36,'1 ',5.51771E-4,3.32751E-3,0.00000E0, 100.00,   0.00,   0.00,  0.00000,  0.00000,  0.00000,  0.00000,1,1,   0.0,   1,1.0000,   0,1.0000,   0,1.0000,   0,1.0000
    38,    36,'1 ',6.70046E-4,3.51083E-3,0.00000E0, 100.00,   0.00,   0.00,  0.00000,  0.00000,  0.00000,  0.00000,1,1,   0.0,   1,1.0000,   0,1.0000,   0,1.0000,   0,1.0000
    58,    36,'1 ',1.08894E-2,7.43904E-2,1.26565E-2, 221.10,   0.00,   0.00,  0.00000,  0.00000,  0.00000,  0.00000,1,1,   0.0,   1,1.0000,   0,1.0000,   0,1.0000,   0,1.0000
    83,    36,'1 ',9.61543E-3,6.69864E-2,1.09503E-2, 221.10,   0.00,   0.00,  0.00000,  0.00000,  0.00000,  0.00000,1,1,   0.0,   1,1.0000,   0,1.0000,   0,1.0000,   0,1.0000
    40,    39,'1 ',5.05298E-4,3.10299E-3,0.00000E0, 100.00,   0.00,   0.00,  0.00000,  0.00000,  0.00000,  0.00000,1,1,   0.0,   1,1.0000,   0,1.0000,   0,1.0000,   0,1.0000
    39,    85,'1 ',8.70223E-3,6.06246E-2,9.91033E-3, 221.10,   0.00,   0.00,  0.00000,  0.00000,  0.00000,  0.00000,1,1,   0.0,   1,1.0000,   0,1.0000,   0,1.0000,   0,1.0000
   159,    39,'1 ',7.33218E-3,5.10801E-2,8.35008E-3, 221.10,   0.00,   0.00,  0.00000,  0.00000,  0.00000,  0.00000,1,1,   0.0,   1,1.0000,   0,1.0000,   0,1.0000,   0,1.0000
    41,   100,'1 ',4.59470E-3,2.96763E-2,5.66169E-3, 221.10,   0.00,   0.00,  0.00000,  0.00000,  0.00000,  0.00000,1,1,   0.0,   1,1.0000,   0,1.0000,   0,1.0000,   0,1.0000
    41,   163,'1 ',3.16521E-3,2.16229E-2,3.67884E-3, 221.10,   0.00,   0.00,  0.00000,  0.00000,  0.00000,  0.00000,1,1,   0.0,   1,1.0000,   0,1.0000,   0,1.0000,   0,1.0000
    41,   180,'1 ',9.40820E-3,6.07659E-2,1.15930E-2, 221.10,   0.00,   0.00,  0.00000,  0.00000,  0.00000,  0.00000,1,1,   0.0,   1,1.0000,   0,1.0000,   0,1.0000,   0,1.0000
    44,    42,'1 ',1.22561E-2,8.53826E-2,1.39575E-2, 221.10,   0.00,   0.00,  0.00000,  0.00000,  0.00000,  0.00000,1,1,   0.0,   1,1.0000,   0,1.0000,   0,1.0000,   0,1.0000
   181,    42,'1 ',8.00829E-3,5.57902E-2,9.12005E-3, 221.10,   0.00,   0.00,  0.00000,  0.00000,  0.00000,  0.00000,1,1,   0.0,   1,1.0000,   0,1.0000,   0,1.0000,   0,1.0000
    43,    84,'1 ',7.50870E-3,5.12952E-2,8.72715E-3, 221.10,   0.00,   0.00,  0.00000,  0.00000,  0.00000,  0.00000,1,1,   0.0,   1,1.0000,   0,1.0000,   0,1.0000,   0,1.0000
...